ID TRUSS,SAMPLE
SOL 101
TIME 5
CEND
TITLE = SAMPLE INPUT FILE
SUBTITLE = TRUSS STRUCTURE
LOAD = 10
SPC = 11
DISP = ALL
ELFORCE = ALL
SPCFORCE = ALL
BEGIN BULK
$
$ GRID POINTS DESCRIBE THE GEOMETRY
$
GRID    1               0.      0.      0.
GRID    2               0.      120.    0.
GRID    3               600.    120.    0.
GRID    4               600.    0.      0.
$
$ TRUSS MEMBERS MODELED WITH ROD ELEMENTS
$
CROD    1       21      2       3
CROD    2       21      2       4
CROD    3       21      1       3
CROD    4       21      1       4
CROD    5       21      3       4
$
PROD    21      22      4.      1.27
MAT1    22      30.E6           .3
FORCE   10      4               1000.   0.      -1.     0.
SPC1    11      12      1       2
SPC1    11      3456    1       2       3       4	
ENDDATA	 
