$ MSC.Nastran input file created on July      06, 2021 at 11:26:48 by
$ Patran 2019
$ Direct Text Input for Nastran System Cell Section
$ Direct Text Input for File Management Section
$ Direct Text Input for Executive Control
$ Normal Modes Analysis, Database
SOL 103
CEND
$ Direct Text Input for Global Case Control Data
TITLE = MSC.Nastran job created on 05-Jul-21 at 20:19:12
ECHO = NONE
$ Using Nastran default values for RESVEC
SUBCASE 1
$ Subcase name : Default
   SUBTITLE=Default
   METHOD = 1
   SPC = 2
   VECTOR(SORT1,REAL)=ALL
   SPCFORCES(SORT1,REAL)=ALL
BEGIN BULK
$ Direct Text Input for Bulk Data
MDLPRM   HDF5    0
PARAM   PRTMAXIM YES
EIGRL    1                       10      0
$ Elements and Element Properties for region : pro
PSOLID   1       1       0
$ Pset: "pro" will be imported as: "psolid.1"
CTETRA   1       1       8445    464     463     462     468     469
         470     465     466     467
CTETRA   2       1       461     460     459     462     474     475
         476     471     472     473
CTETRA   3       1       463     464     461     462     469     477
         478     467     466     471
CTETRA   4       1       8465    8445    463     462     9259    470
         480     479     465     467
CTETRA   5       1       8468    458     8466    462     484     485
         8950    481     482     483
CTETRA   6       1       457     456     455     454     489     490
         491     486     487     488
CTETRA   7       1       6051    453     452     454     495     496
         497     492     493     494
CTETRA   8       1       451     450     452     454     500     501
         502     498     499     494
CTETRA   9       1       8096    450     451     454     504     500
         505     503     499     498
CTETRA   10      1       8096    8095    451     450     9411    507
         505     504     506     500
CTETRA   11      1       8097    453     456     454     509     510
         511     508     493     487
CTETRA   12      1       449     450     457     454     513     514
         515     512     499     486
CTETRA   13      1       448     447     446     445     519     520
         521     516     517     518
CTETRA   14      1       8440    444     446     445     524     525
         526     522     523     518
CTETRA   15      1       5901    6010    5903    443     6772    6773
         5902    527     528     529
CTETRA   16      1       8439    446     442     445     532     533
         534     530     518     531
CTETRA   17      1       8442    8439    442     445     9545    534
         536     535     530     531
CTETRA   18      1       446     447     442     445     520     537
         533     518     517     531
CTETRA   19      1       8088    441     440     439     541     542
         543     538     539     540
CTETRA   20      1       8088    8093    441     439     9116    545
         541     538     544     539
$ ... 12210 like lines cut
$ Referenced Material Records
$ Material Record : elastic
$ Description of Material : Date: 05-Jul-21           Time: 20:02:40
MAT1     1      2.+11           .3      7800.
$ Nodes of the Entire Model
GRID*    1                              1.87935340404511.140323892235756
*       5.15197801589966
GRID*    2                              1.92173194885254.300291210412979
*       3.9881579875946
GRID*    3                              1.89436936378479.134281918406487
*       4.91013050079346
GRID*    4                              1.40940773487091.137326121330261
*       .243267312645912
GRID*    5                              2.02629637718201.189314916729927
*       4.23826551437378
GRID*    6                              1.87936067581177.140252381563187
*       6.15211629867554
GRID*    7                              1.89109432697296.138611197471619
*       5.74211549758911
GRID*    8                              1.87946224212647.140324801206589
*       5.95211410522461
GRID*    9                              1.69322144985199.144389137625694
*       3.21239352226257
GRID*    10                             1.7401305437088 .30951589345932
*       8.58881187438965
GRID*    11                             .909373939037323.115666851401329
*       8.63350296020508
GRID*    12                             1.8669536113739 .138589769601822
*       3.98040437698364
GRID*    13                             1.73917770385742.306161105632782
*       2.57497000694275
GRID*    14                             1.48040115833283.132034450769424
*       6.44663143157959
GRID*    15                             1.67017126083374.148605152964592
*       6.39217233657837
GRID*    16                             1.45901930332184.279249399900436
*       6.47782754898071
GRID*    17                             1.89107215404511.138636365532875
*       8.54276084899902
GRID*    18                             1.67069315910339.152818888425827
*       5.60557413101196
GRID*    19                             1.48669695854187.132549047470093
*       5.64979934692383
GRID*    20                             1.51181483268738.132562518119812
*       4.85693502426148
$ ... 11704 like lines cut
GRID     5873            0.      0.      0.
GRID*    5874                           2.10290336608887.00795837584883
*        0.
GRID*    5875                           2.20101547241211.034665696322918
*        0.
GRID*    5876                           2.28250312805176.09533204138279
*        0.
GRID*    5877                           2.30168676376343.193020105361939
*        0.
GRID*    5878                           2.25327038764954.282719343900681
*        0.
GRID*    5879                           2.17558789253235.349733740091324
*        0.
GRID*    5880                           2.08499312400818.398058712482452
*        0.
GRID*    5881                           1.98787486553192.431405007839203
*        0.
GRID*    5882                           1.88713014125824.451941132545471
*        0.
GRID*    5883                           1.78488802909851.461207747459412
*        0.
GRID*    5884                           1.68204617500305.460482269525528
*        0.
GRID*    5885                           1.57961690425873.450783580541611
*        0.
GRID*    5886                           1.47840583324432.433058857917786
*        0.
GRID*    5887                           1.37868142127991.40812224149704
*        0.
GRID*    5888                           1.28086841106415.376747280359268
*        0.
GRID*    5889                           1.1849217414856 .339483112096787
*        0.
GRID*    5890                           1.09118819236755.296993285417557
*        0.
GRID     5891           2.       0.      0.
GRID*    5892                           .0999422967433937.29926057-7
*        0.
GRID*    5893                           .1999640166759491.007682727-6
*        0.
GRID*    5894                           .3001468777656569.60858415-7
*        0.
GRID*    5895                           .4002954959869397.12296298-7
*        0.
GRID*    5896                           .5003465414047243.8464313-7
*        0.
GRID*    5897                           .60020262002945 1.07375641-7
*        0.
GRID*    5898                           .6997832059860235.547103-9
*        0.
GRID*    5899                           .799737572669983 0.
*        0.
GRID*    5900                           .900326490402222 0.
*        0.
GRID*    5901                           1.00133335590363 0.
*        0.
GRID*    5902                           1.10254454612732 0.
*        0.
GRID*    5903                           1.20375955104828 0.
*        0.
GRID*    5904                           1.30478513240814 0.
*        0.
GRID*    5905                           1.40542829036713 0.
*        0.
GRID*    5906                           1.50548923015595 0.
*        0.
GRID*    5907                           1.60475695133209 0.
*        0.
GRID*    5908                           1.70283937454224 0.
*        0.
GRID*    5909                           1.79988932609558 0.
*        0.
GRID*    5910                           1.89923012256622 0.
*        0.
GRID*    5911                           1.18948411941528.135010913014412
*       10.
$ ... 100 like lines cut
GRID     5962            0.      0.     10.
GRID*    5963                           .099879965186119 0.
*       10.
GRID*    5964                           .199759930372238 0.
*       10.
GRID*    5965                           .2997799217700960.
*       10.
GRID*    5966                           .3997999429702760.
*       10.
GRID*    5967                           .4998199343681340.
*       10.
GRID*    5968                           .599839925765991 0.
*       10.
GRID*    5969                           .699859917163849 0.
*       10.
GRID*    5970                           .7998799085617070.
*       10.
GRID*    5971                           .899899959564209 0.
*       10.
GRID*    5972                           .9999199509620670.
*       10.
GRID*    5973                           1.09993994235992 0.
*       10.
GRID*    5974                           1.199959874153140.
*       10.
GRID*    5975                           1.29997992515564 0.
*       10.
GRID*    5976                           1.399999976158140.
*       10.
GRID*    5977                           1.500019907951360.
*       10.
GRID*    5978                           1.600039958953860.
*       10.
GRID*    5979                           1.70005989074707 0.
*       10.
GRID*    5980                           1.80007994174957 0.
*       10.
GRID*    5981                           1.900039911270140.
*       10.
GRID     5982           2.       0.     10.
GRID*    5983                           2.11419057846069.009706621989608
*       10.
GRID*    5984                           2.20396709442139.035886988043785
*       10.
GRID*    5985                           2.28364229202271.096729084849358
*       10.
GRID*    5986                           2.30279159545898.188827589154244
*       10.
GRID*    5987                           2.25645613670349.279074639081955
*       10.
GRID*    5988                           2.17878913879395.34747576713562
*       10.
GRID*    5989                           2.08797883987427.396796464920044
*       10.
GRID*    5990                           1.994588971138  .429660201072693
*       10.
GRID*    5991                           1.89108800888062.451377004384995
*       10.
GRID*    5992                           1.7897093296051 .461028546094894
*       10.
GRID*    5993                           1.68734002113342.460758894681931
*       10.
GRID*    5994                           1.58592319488525.45165079832077
*       10.
GRID*    5995                           1.48217368125916.433868914842606
*       10.
GRID*    5996                           1.38230836391449.409176915884018
*       10.
GRID*    5997                           1.28762340545654.379177868366242
*       10.
GRID*    5998                           1.19233071804047.342641651630402
*       10.
GRID*    5999                           1.09646880626679.299586772918701
*       10.
GRID*    6000                           .1998563706874851.007580522-6
*       .125242292881012
GRID*    6001                           .3996612727642067.14250064-7
*       .226254492998123
GRID*    6002                           .5996354818344121.08470914-7
*       .13435310125351
$ ... 9506 like lines cut
$ Loads for Load Case : Default
SPCADD   2       1
$ Displacement Constraints of Load Set : disp1
SPC1     1       123456  5872
$ Referenced Coordinate Frames
ENDDATA 3744ffab
